*SPEF "ieee 1481-1999"
*DESIGN "caravel"
*DATE "11:11:11 Fri 11 11, 1111"
*VENDOR "OpenRCX"
*PROGRAM "Parallel Extraction"
*VERSION "1.0"
*DESIGN_FLOW "NAME_SCOPE LOCAL" "PIN_CAP NONE"
*DIVIDER /
*DELIMITER :
*BUS_DELIMITER []
*T_UNIT 1 NS
*C_UNIT 1 PF
*R_UNIT 1 OHM
*L_UNIT 1 HENRY

*NAME_MAP
*1 clock
*2 flash_clk
*3 flash_csb
*4 flash_io0
*5 flash_io1
*6 gpio
*7 mprj_io[0]
*8 mprj_io[10]
*9 mprj_io[11]
*10 mprj_io[12]
*11 mprj_io[13]
*12 mprj_io[14]
*13 mprj_io[15]
*14 mprj_io[16]
*15 mprj_io[17]
*16 mprj_io[18]
*17 mprj_io[19]
*18 mprj_io[1]
*19 mprj_io[20]
*20 mprj_io[21]
*21 mprj_io[22]
*22 mprj_io[23]
*23 mprj_io[24]
*24 mprj_io[25]
*25 mprj_io[26]
*26 mprj_io[27]
*27 mprj_io[28]
*28 mprj_io[29]
*29 mprj_io[2]
*30 mprj_io[30]
*31 mprj_io[31]
*32 mprj_io[32]
*33 mprj_io[33]
*34 mprj_io[34]
*35 mprj_io[35]
*36 mprj_io[36]
*37 mprj_io[37]
*38 mprj_io[3]
*39 mprj_io[4]
*40 mprj_io[5]
*41 mprj_io[6]
*42 mprj_io[7]
*43 mprj_io[8]
*44 mprj_io[9]
*45 resetb
*46 vccd
*47 vccd1
*48 vccd2
*49 vdda
*50 vdda1
*51 vdda1_2
*52 vdda2
*53 vddio
*54 vddio_2
*55 vssa
*56 vssa1
*57 vssa1_2
*58 vssa2
*59 vssd
*60 vssd1
*61 vssd2
*62 vssio
*63 vssio_2
*64 caravel_clk
*65 caravel_clk2
*66 caravel_rstn
*67 clock_core
*68 debug_in
*69 debug_mode
*70 debug_oeb
*71 debug_out
*72 ext_clk_sel
*73 ext_reset
*74 flash_clk_core
*75 flash_clk_frame
*76 flash_clk_oeb
*77 flash_csb_core
*78 flash_csb_frame
*79 flash_csb_oeb
*80 flash_io0_di
*81 flash_io0_di_core
*82 flash_io0_do
*83 flash_io0_do_core
*84 flash_io0_ieb
*85 flash_io0_oeb
*86 flash_io0_oeb_core
*87 flash_io1_di
*88 flash_io1_di_core
*89 flash_io1_do
*90 flash_io1_do_core
*91 flash_io1_ieb
*92 flash_io1_oeb
*93 flash_io1_oeb_core
*94 flash_io2_di_core
*95 flash_io2_do_core
*96 flash_io2_oeb_core
*97 flash_io3_di_core
*98 flash_io3_do_core
*99 flash_io3_oeb_core
*100 gpio_clock_1\[0\]
*101 gpio_clock_1\[10\]
*102 gpio_clock_1\[11\]
*103 gpio_clock_1\[12\]
*104 gpio_clock_1\[13\]
*105 gpio_clock_1\[14\]
*106 gpio_clock_1\[15\]
*107 gpio_clock_1\[16\]
*108 gpio_clock_1\[17\]
*109 gpio_clock_1\[1\]
*110 gpio_clock_1\[2\]
*111 gpio_clock_1\[3\]
*112 gpio_clock_1\[4\]
*113 gpio_clock_1\[5\]
*114 gpio_clock_1\[6\]
*115 gpio_clock_1\[7\]
*116 gpio_clock_1\[8\]
*117 gpio_clock_1\[9\]
*118 gpio_clock_1_shifted\[0\]
*119 gpio_clock_2\[10\]
*120 gpio_clock_2\[11\]
*121 gpio_clock_2\[12\]
*122 gpio_clock_2\[13\]
*123 gpio_clock_2\[14\]
*124 gpio_clock_2\[15\]
*125 gpio_clock_2\[16\]
*126 gpio_clock_2\[17\]
*127 gpio_clock_2\[18\]
*128 gpio_clock_2\[1\]
*129 gpio_clock_2\[2\]
*130 gpio_clock_2\[3\]
*131 gpio_clock_2\[4\]
*132 gpio_clock_2\[5\]
*133 gpio_clock_2\[6\]
*134 gpio_clock_2\[7\]
*135 gpio_clock_2\[8\]
*136 gpio_clock_2\[9\]
*137 gpio_defaults\[0\]
*138 gpio_defaults\[100\]
*139 gpio_defaults\[101\]
*140 gpio_defaults\[102\]
*141 gpio_defaults\[103\]
*142 gpio_defaults\[104\]
*143 gpio_defaults\[105\]
*144 gpio_defaults\[106\]
*145 gpio_defaults\[107\]
*146 gpio_defaults\[108\]
*147 gpio_defaults\[109\]
*148 gpio_defaults\[10\]
*149 gpio_defaults\[110\]
*150 gpio_defaults\[111\]
*151 gpio_defaults\[112\]
*152 gpio_defaults\[113\]
*153 gpio_defaults\[114\]
*154 gpio_defaults\[115\]
*155 gpio_defaults\[116\]
*156 gpio_defaults\[117\]
*157 gpio_defaults\[118\]
*158 gpio_defaults\[119\]
*159 gpio_defaults\[11\]
*160 gpio_defaults\[120\]
*161 gpio_defaults\[121\]
*162 gpio_defaults\[122\]
*163 gpio_defaults\[123\]
*164 gpio_defaults\[124\]
*165 gpio_defaults\[125\]
*166 gpio_defaults\[126\]
*167 gpio_defaults\[127\]
*168 gpio_defaults\[128\]
*169 gpio_defaults\[129\]
*170 gpio_defaults\[12\]
*171 gpio_defaults\[130\]
*172 gpio_defaults\[131\]
*173 gpio_defaults\[132\]
*174 gpio_defaults\[133\]
*175 gpio_defaults\[134\]
*176 gpio_defaults\[135\]
*177 gpio_defaults\[136\]
*178 gpio_defaults\[137\]
*179 gpio_defaults\[138\]
*180 gpio_defaults\[139\]
*181 gpio_defaults\[13\]
*182 gpio_defaults\[140\]
*183 gpio_defaults\[141\]
*184 gpio_defaults\[142\]
*185 gpio_defaults\[143\]
*186 gpio_defaults\[144\]
*187 gpio_defaults\[145\]
*188 gpio_defaults\[146\]
*189 gpio_defaults\[147\]
*190 gpio_defaults\[148\]
*191 gpio_defaults\[149\]
*192 gpio_defaults\[14\]
*193 gpio_defaults\[150\]
*194 gpio_defaults\[151\]
*195 gpio_defaults\[152\]
*196 gpio_defaults\[153\]
*197 gpio_defaults\[154\]
*198 gpio_defaults\[155\]
*199 gpio_defaults\[156\]
*200 gpio_defaults\[157\]
*201 gpio_defaults\[158\]
*202 gpio_defaults\[159\]
*203 gpio_defaults\[15\]
*204 gpio_defaults\[160\]
*205 gpio_defaults\[161\]
*206 gpio_defaults\[162\]
*207 gpio_defaults\[163\]
*208 gpio_defaults\[164\]
*209 gpio_defaults\[165\]
*210 gpio_defaults\[166\]
*211 gpio_defaults\[167\]
*212 gpio_defaults\[168\]
*213 gpio_defaults\[169\]
*214 gpio_defaults\[16\]
*215 gpio_defaults\[170\]
*216 gpio_defaults\[171\]
*217 gpio_defaults\[172\]
*218 gpio_defaults\[173\]
*219 gpio_defaults\[174\]
*220 gpio_defaults\[175\]
*221 gpio_defaults\[176\]
*222 gpio_defaults\[177\]
*223 gpio_defaults\[178\]
*224 gpio_defaults\[179\]
*225 gpio_defaults\[17\]
*226 gpio_defaults\[180\]
*227 gpio_defaults\[181\]
*228 gpio_defaults\[182\]
*229 gpio_defaults\[183\]
*230 gpio_defaults\[184\]
*231 gpio_defaults\[185\]
*232 gpio_defaults\[186\]
*233 gpio_defaults\[187\]
*234 gpio_defaults\[188\]
*235 gpio_defaults\[189\]
*236 gpio_defaults\[18\]
*237 gpio_defaults\[190\]
*238 gpio_defaults\[191\]
*239 gpio_defaults\[192\]
*240 gpio_defaults\[193\]
*241 gpio_defaults\[194\]
*242 gpio_defaults\[195\]
*243 gpio_defaults\[196\]
*244 gpio_defaults\[197\]
*245 gpio_defaults\[198\]
*246 gpio_defaults\[199\]
*247 gpio_defaults\[19\]
*248 gpio_defaults\[1\]
*249 gpio_defaults\[200\]
*250 gpio_defaults\[201\]
*251 gpio_defaults\[202\]
*252 gpio_defaults\[203\]
*253 gpio_defaults\[204\]
*254 gpio_defaults\[205\]
*255 gpio_defaults\[206\]
*256 gpio_defaults\[207\]
*257 gpio_defaults\[208\]
*258 gpio_defaults\[209\]
*259 gpio_defaults\[20\]
*260 gpio_defaults\[210\]
*261 gpio_defaults\[211\]
*262 gpio_defaults\[212\]
*263 gpio_defaults\[213\]
*264 gpio_defaults\[214\]
*265 gpio_defaults\[215\]
*266 gpio_defaults\[216\]
*267 gpio_defaults\[217\]
*268 gpio_defaults\[218\]
*269 gpio_defaults\[219\]
*270 gpio_defaults\[21\]
*271 gpio_defaults\[220\]
*272 gpio_defaults\[221\]
*273 gpio_defaults\[222\]
*274 gpio_defaults\[223\]
*275 gpio_defaults\[224\]
*276 gpio_defaults\[225\]
*277 gpio_defaults\[226\]
*278 gpio_defaults\[227\]
*279 gpio_defaults\[228\]
*280 gpio_defaults\[229\]
*281 gpio_defaults\[22\]
*282 gpio_defaults\[230\]
*283 gpio_defaults\[231\]
*284 gpio_defaults\[232\]
*285 gpio_defaults\[233\]
*286 gpio_defaults\[234\]
*287 gpio_defaults\[235\]
*288 gpio_defaults\[236\]
*289 gpio_defaults\[237\]
*290 gpio_defaults\[238\]
*291 gpio_defaults\[239\]
*292 gpio_defaults\[23\]
*293 gpio_defaults\[240\]
*294 gpio_defaults\[241\]
*295 gpio_defaults\[242\]
*296 gpio_defaults\[243\]
*297 gpio_defaults\[244\]
*298 gpio_defaults\[245\]
*299 gpio_defaults\[246\]
*300 gpio_defaults\[247\]
*301 gpio_defaults\[248\]
*302 gpio_defaults\[249\]
*303 gpio_defaults\[24\]
*304 gpio_defaults\[250\]
*305 gpio_defaults\[251\]
*306 gpio_defaults\[252\]
*307 gpio_defaults\[253\]
*308 gpio_defaults\[254\]
*309 gpio_defaults\[255\]
*310 gpio_defaults\[256\]
*311 gpio_defaults\[257\]
*312 gpio_defaults\[258\]
*313 gpio_defaults\[259\]
*314 gpio_defaults\[25\]
*315 gpio_defaults\[260\]
*316 gpio_defaults\[261\]
*317 gpio_defaults\[262\]
*318 gpio_defaults\[263\]
*319 gpio_defaults\[264\]
*320 gpio_defaults\[265\]
*321 gpio_defaults\[266\]
*322 gpio_defaults\[267\]
*323 gpio_defaults\[268\]
*324 gpio_defaults\[269\]
*325 gpio_defaults\[26\]
*326 gpio_defaults\[270\]
*327 gpio_defaults\[271\]
*328 gpio_defaults\[272\]
*329 gpio_defaults\[273\]
*330 gpio_defaults\[274\]
*331 gpio_defaults\[275\]
*332 gpio_defaults\[276\]
*333 gpio_defaults\[277\]
*334 gpio_defaults\[278\]
*335 gpio_defaults\[279\]
*336 gpio_defaults\[27\]
*337 gpio_defaults\[280\]
*338 gpio_defaults\[281\]
*339 gpio_defaults\[282\]
*340 gpio_defaults\[283\]
*341 gpio_defaults\[284\]
*342 gpio_defaults\[285\]
*343 gpio_defaults\[286\]
*344 gpio_defaults\[287\]
*345 gpio_defaults\[288\]
*346 gpio_defaults\[289\]
*347 gpio_defaults\[28\]
*348 gpio_defaults\[290\]
*349 gpio_defaults\[291\]
*350 gpio_defaults\[292\]
*351 gpio_defaults\[293\]
*352 gpio_defaults\[294\]
*353 gpio_defaults\[295\]
*354 gpio_defaults\[296\]
*355 gpio_defaults\[297\]
*356 gpio_defaults\[298\]
*357 gpio_defaults\[299\]
*358 gpio_defaults\[29\]
*359 gpio_defaults\[2\]
*360 gpio_defaults\[300\]
*361 gpio_defaults\[301\]
*362 gpio_defaults\[302\]
*363 gpio_defaults\[303\]
*364 gpio_defaults\[304\]
*365 gpio_defaults\[305\]
*366 gpio_defaults\[306\]
*367 gpio_defaults\[307\]
*368 gpio_defaults\[308\]
*369 gpio_defaults\[309\]
*370 gpio_defaults\[30\]
*371 gpio_defaults\[310\]
*372 gpio_defaults\[311\]
*373 gpio_defaults\[312\]
*374 gpio_defaults\[313\]
*375 gpio_defaults\[314\]
*376 gpio_defaults\[315\]
*377 gpio_defaults\[316\]
*378 gpio_defaults\[317\]
*379 gpio_defaults\[318\]
*380 gpio_defaults\[319\]
*381 gpio_defaults\[31\]
*382 gpio_defaults\[320\]
*383 gpio_defaults\[321\]
*384 gpio_defaults\[322\]
*385 gpio_defaults\[323\]
*386 gpio_defaults\[324\]
*387 gpio_defaults\[325\]
*388 gpio_defaults\[326\]
*389 gpio_defaults\[327\]
*390 gpio_defaults\[328\]
*391 gpio_defaults\[329\]
*392 gpio_defaults\[32\]
*393 gpio_defaults\[330\]
*394 gpio_defaults\[331\]
*395 gpio_defaults\[332\]
*396 gpio_defaults\[333\]
*397 gpio_defaults\[334\]
*398 gpio_defaults\[335\]
*399 gpio_defaults\[336\]
*400 gpio_defaults\[337\]
*401 gpio_defaults\[338\]
*402 gpio_defaults\[339\]
*403 gpio_defaults\[33\]
*404 gpio_defaults\[340\]
*405 gpio_defaults\[341\]
*406 gpio_defaults\[342\]
*407 gpio_defaults\[343\]
*408 gpio_defaults\[344\]
*409 gpio_defaults\[345\]
*410 gpio_defaults\[346\]
*411 gpio_defaults\[347\]
*412 gpio_defaults\[348\]
*413 gpio_defaults\[349\]
*414 gpio_defaults\[34\]
*415 gpio_defaults\[350\]
*416 gpio_defaults\[351\]
*417 gpio_defaults\[352\]
*418 gpio_defaults\[353\]
*419 gpio_defaults\[354\]
*420 gpio_defaults\[355\]
*421 gpio_defaults\[356\]
*422 gpio_defaults\[357\]
*423 gpio_defaults\[358\]
*424 gpio_defaults\[359\]
*425 gpio_defaults\[35\]
*426 gpio_defaults\[360\]
*427 gpio_defaults\[361\]
*428 gpio_defaults\[362\]
*429 gpio_defaults\[363\]
*430 gpio_defaults\[364\]
*431 gpio_defaults\[365\]
*432 gpio_defaults\[366\]
*433 gpio_defaults\[367\]
*434 gpio_defaults\[368\]
*435 gpio_defaults\[369\]
*436 gpio_defaults\[36\]
*437 gpio_defaults\[370\]
*438 gpio_defaults\[371\]
*439 gpio_defaults\[372\]
*440 gpio_defaults\[373\]
*441 gpio_defaults\[374\]
*442 gpio_defaults\[375\]
*443 gpio_defaults\[376\]
*444 gpio_defaults\[377\]
*445 gpio_defaults\[378\]
*446 gpio_defaults\[379\]
*447 gpio_defaults\[37\]
*448 gpio_defaults\[380\]
*449 gpio_defaults\[381\]
*450 gpio_defaults\[382\]
*451 gpio_defaults\[383\]
*452 gpio_defaults\[384\]
*453 gpio_defaults\[385\]
*454 gpio_defaults\[386\]
*455 gpio_defaults\[387\]
*456 gpio_defaults\[388\]
*457 gpio_defaults\[389\]
*458 gpio_defaults\[38\]
*459 gpio_defaults\[390\]
*460 gpio_defaults\[391\]
*461 gpio_defaults\[392\]
*462 gpio_defaults\[393\]
*463 gpio_defaults\[394\]
*464 gpio_defaults\[395\]
*465 gpio_defaults\[396\]
*466 gpio_defaults\[397\]
*467 gpio_defaults\[398\]
*468 gpio_defaults\[399\]
*469 gpio_defaults\[39\]
*470 gpio_defaults\[3\]
*471 gpio_defaults\[400\]
*472 gpio_defaults\[401\]
*473 gpio_defaults\[402\]
*474 gpio_defaults\[403\]
*475 gpio_defaults\[404\]
*476 gpio_defaults\[405\]
*477 gpio_defaults\[406\]
*478 gpio_defaults\[407\]
*479 gpio_defaults\[408\]
*480 gpio_defaults\[409\]
*481 gpio_defaults\[40\]
*482 gpio_defaults\[410\]
*483 gpio_defaults\[411\]
*484 gpio_defaults\[412\]
*485 gpio_defaults\[413\]
*486 gpio_defaults\[414\]
*487 gpio_defaults\[415\]
*488 gpio_defaults\[416\]
*489 gpio_defaults\[417\]
*490 gpio_defaults\[418\]
*491 gpio_defaults\[419\]
*492 gpio_defaults\[41\]
*493 gpio_defaults\[420\]
*494 gpio_defaults\[421\]
*495 gpio_defaults\[422\]
*496 gpio_defaults\[423\]
*497 gpio_defaults\[424\]
*498 gpio_defaults\[425\]
*499 gpio_defaults\[426\]
*500 gpio_defaults\[427\]
*501 gpio_defaults\[428\]
*502 gpio_defaults\[429\]
*503 gpio_defaults\[42\]
*504 gpio_defaults\[430\]
*505 gpio_defaults\[431\]
*506 gpio_defaults\[432\]
*507 gpio_defaults\[433\]
*508 gpio_defaults\[434\]
*509 gpio_defaults\[435\]
*510 gpio_defaults\[436\]
*511 gpio_defaults\[437\]
*512 gpio_defaults\[438\]
*513 gpio_defaults\[439\]
*514 gpio_defaults\[43\]
*515 gpio_defaults\[440\]
*516 gpio_defaults\[441\]
*517 gpio_defaults\[442\]
*518 gpio_defaults\[443\]
*519 gpio_defaults\[444\]
*520 gpio_defaults\[445\]
*521 gpio_defaults\[446\]
*522 gpio_defaults\[447\]
*523 gpio_defaults\[448\]
*524 gpio_defaults\[449\]
*525 gpio_defaults\[44\]
*526 gpio_defaults\[450\]
*527 gpio_defaults\[451\]
*528 gpio_defaults\[452\]
*529 gpio_defaults\[453\]
*530 gpio_defaults\[454\]
*531 gpio_defaults\[455\]
*532 gpio_defaults\[456\]
*533 gpio_defaults\[457\]
*534 gpio_defaults\[458\]
*535 gpio_defaults\[459\]
*536 gpio_defaults\[45\]
*537 gpio_defaults\[460\]
*538 gpio_defaults\[461\]
*539 gpio_defaults\[462\]
*540 gpio_defaults\[463\]
*541 gpio_defaults\[464\]
*542 gpio_defaults\[465\]
*543 gpio_defaults\[466\]
*544 gpio_defaults\[467\]
*545 gpio_defaults\[468\]
*546 gpio_defaults\[469\]
*547 gpio_defaults\[46\]
*548 gpio_defaults\[470\]
*549 gpio_defaults\[471\]
*550 gpio_defaults\[472\]
*551 gpio_defaults\[473\]
*552 gpio_defaults\[474\]
*553 gpio_defaults\[475\]
*554 gpio_defaults\[476\]
*555 gpio_defaults\[477\]
*556 gpio_defaults\[478\]
*557 gpio_defaults\[479\]
*558 gpio_defaults\[47\]
*559 gpio_defaults\[480\]
*560 gpio_defaults\[481\]
*561 gpio_defaults\[482\]
*562 gpio_defaults\[483\]
*563 gpio_defaults\[484\]
*564 gpio_defaults\[485\]
*565 gpio_defaults\[486\]
*566 gpio_defaults\[487\]
*567 gpio_defaults\[488\]
*568 gpio_defaults\[489\]
*569 gpio_defaults\[48\]
*570 gpio_defaults\[490\]
*571 gpio_defaults\[491\]
*572 gpio_defaults\[492\]
*573 gpio_defaults\[493\]
*574 gpio_defaults\[49\]
*575 gpio_defaults\[4\]
*576 gpio_defaults\[50\]
*577 gpio_defaults\[51\]
*578 gpio_defaults\[52\]
*579 gpio_defaults\[53\]
*580 gpio_defaults\[54\]
*581 gpio_defaults\[55\]
*582 gpio_defaults\[56\]
*583 gpio_defaults\[57\]
*584 gpio_defaults\[58\]
*585 gpio_defaults\[59\]
*586 gpio_defaults\[5\]
*587 gpio_defaults\[60\]
*588 gpio_defaults\[61\]
*589 gpio_defaults\[62\]
*590 gpio_defaults\[63\]
*591 gpio_defaults\[64\]
*592 gpio_defaults\[65\]
*593 gpio_defaults\[66\]
*594 gpio_defaults\[67\]
*595 gpio_defaults\[68\]
*596 gpio_defaults\[69\]
*597 gpio_defaults\[6\]
*598 gpio_defaults\[70\]
*599 gpio_defaults\[71\]
*600 gpio_defaults\[72\]
*601 gpio_defaults\[73\]
*602 gpio_defaults\[74\]
*603 gpio_defaults\[75\]
*604 gpio_defaults\[76\]
*605 gpio_defaults\[77\]
*606 gpio_defaults\[78\]
*607 gpio_defaults\[79\]
*608 gpio_defaults\[7\]
*609 gpio_defaults\[80\]
*610 gpio_defaults\[81\]
*611 gpio_defaults\[82\]
*612 gpio_defaults\[83\]
*613 gpio_defaults\[84\]
*614 gpio_defaults\[85\]
*615 gpio_defaults\[86\]
*616 gpio_defaults\[87\]
*617 gpio_defaults\[88\]
*618 gpio_defaults\[89\]
*619 gpio_defaults\[8\]
*620 gpio_defaults\[90\]
*621 gpio_defaults\[91\]
*622 gpio_defaults\[92\]
*623 gpio_defaults\[93\]
*624 gpio_defaults\[94\]
*625 gpio_defaults\[95\]
*626 gpio_defaults\[96\]
*627 gpio_defaults\[97\]
*628 gpio_defaults\[98\]
*629 gpio_defaults\[99\]
*630 gpio_defaults\[9\]
*631 gpio_in_core
*632 gpio_inenb_core
*633 gpio_load_1\[0\]
*634 gpio_load_1\[10\]
*635 gpio_load_1\[11\]
*636 gpio_load_1\[12\]
*637 gpio_load_1\[13\]
*638 gpio_load_1\[14\]
*639 gpio_load_1\[15\]
*640 gpio_load_1\[16\]
*641 gpio_load_1\[17\]
*642 gpio_load_1\[1\]
*643 gpio_load_1\[2\]
*644 gpio_load_1\[3\]
*645 gpio_load_1\[4\]
*646 gpio_load_1\[5\]
*647 gpio_load_1\[6\]
*648 gpio_load_1\[7\]
*649 gpio_load_1\[8\]
*650 gpio_load_1\[9\]
*651 gpio_load_1_shifted\[0\]
*652 gpio_load_2\[10\]
*653 gpio_load_2\[11\]
*654 gpio_load_2\[12\]
*655 gpio_load_2\[13\]
*656 gpio_load_2\[14\]
*657 gpio_load_2\[15\]
*658 gpio_load_2\[16\]
*659 gpio_load_2\[17\]
*660 gpio_load_2\[18\]
*661 gpio_load_2\[1\]
*662 gpio_load_2\[2\]
*663 gpio_load_2\[3\]
*664 gpio_load_2\[4\]
*665 gpio_load_2\[5\]
*666 gpio_load_2\[6\]
*667 gpio_load_2\[7\]
*668 gpio_load_2\[8\]
*669 gpio_load_2\[9\]
*670 gpio_mode0_core
*671 gpio_mode1_core
*672 gpio_out_core
*673 gpio_outenb_core
*674 gpio_resetn_1\[0\]
*675 gpio_resetn_1\[10\]
*676 gpio_resetn_1\[11\]
*677 gpio_resetn_1\[12\]
*678 gpio_resetn_1\[13\]
*679 gpio_resetn_1\[14\]
*680 gpio_resetn_1\[15\]
*681 gpio_resetn_1\[16\]
*682 gpio_resetn_1\[17\]
*683 gpio_resetn_1\[1\]
*684 gpio_resetn_1\[2\]
*685 gpio_resetn_1\[3\]
*686 gpio_resetn_1\[4\]
*687 gpio_resetn_1\[5\]
*688 gpio_resetn_1\[6\]
*689 gpio_resetn_1\[7\]
*690 gpio_resetn_1\[8\]
*691 gpio_resetn_1\[9\]
*692 gpio_resetn_1_shifted\[0\]
*693 gpio_resetn_2\[10\]
*694 gpio_resetn_2\[11\]
*695 gpio_resetn_2\[12\]
*696 gpio_resetn_2\[13\]
*697 gpio_resetn_2\[14\]
*698 gpio_resetn_2\[15\]
*699 gpio_resetn_2\[16\]
*700 gpio_resetn_2\[17\]
*701 gpio_resetn_2\[18\]
*702 gpio_resetn_2\[1\]
*703 gpio_resetn_2\[2\]
*704 gpio_resetn_2\[3\]
*705 gpio_resetn_2\[4\]
*706 gpio_resetn_2\[5\]
*707 gpio_resetn_2\[6\]
*708 gpio_resetn_2\[7\]
*709 gpio_resetn_2\[8\]
*710 gpio_resetn_2\[9\]
*711 gpio_serial_link_1\[0\]
*712 gpio_serial_link_1\[10\]
*713 gpio_serial_link_1\[11\]
*714 gpio_serial_link_1\[12\]
*715 gpio_serial_link_1\[13\]
*716 gpio_serial_link_1\[14\]
*717 gpio_serial_link_1\[15\]
*718 gpio_serial_link_1\[16\]
*719 gpio_serial_link_1\[17\]
*720 gpio_serial_link_1\[1\]
*721 gpio_serial_link_1\[2\]
*722 gpio_serial_link_1\[3\]
*723 gpio_serial_link_1\[4\]
*724 gpio_serial_link_1\[5\]
*725 gpio_serial_link_1\[6\]
*726 gpio_serial_link_1\[7\]
*727 gpio_serial_link_1\[8\]
*728 gpio_serial_link_1\[9\]
*729 gpio_serial_link_1_shifted\[0\]
*730 gpio_serial_link_2\[10\]
*731 gpio_serial_link_2\[11\]
*732 gpio_serial_link_2\[12\]
*733 gpio_serial_link_2\[13\]
*734 gpio_serial_link_2\[14\]
*735 gpio_serial_link_2\[15\]
*736 gpio_serial_link_2\[16\]
*737 gpio_serial_link_2\[17\]
*738 gpio_serial_link_2\[18\]
*739 gpio_serial_link_2\[1\]
*740 gpio_serial_link_2\[2\]
*741 gpio_serial_link_2\[3\]
*742 gpio_serial_link_2\[4\]
*743 gpio_serial_link_2\[5\]
*744 gpio_serial_link_2\[6\]
*745 gpio_serial_link_2\[7\]
*746 gpio_serial_link_2\[8\]
*747 gpio_serial_link_2\[9\]
*748 gpio_serial_link_2_shifted\[18\]
*749 hk_ack_i
*750 hk_cyc_o
*751 hk_dat_i\[0\]
*752 hk_dat_i\[10\]
*753 hk_dat_i\[11\]
*754 hk_dat_i\[12\]
*755 hk_dat_i\[13\]
*756 hk_dat_i\[14\]
*757 hk_dat_i\[15\]
*758 hk_dat_i\[16\]
*759 hk_dat_i\[17\]
*760 hk_dat_i\[18\]
*761 hk_dat_i\[19\]
*762 hk_dat_i\[1\]
*763 hk_dat_i\[20\]
*764 hk_dat_i\[21\]
*765 hk_dat_i\[22\]
*766 hk_dat_i\[23\]
*767 hk_dat_i\[24\]
*768 hk_dat_i\[25\]
*769 hk_dat_i\[26\]
*770 hk_dat_i\[27\]
*771 hk_dat_i\[28\]
*772 hk_dat_i\[29\]
*773 hk_dat_i\[2\]
*774 hk_dat_i\[30\]
*775 hk_dat_i\[31\]
*776 hk_dat_i\[3\]
*777 hk_dat_i\[4\]
*778 hk_dat_i\[5\]
*779 hk_dat_i\[6\]
*780 hk_dat_i\[7\]
*781 hk_dat_i\[8\]
*782 hk_dat_i\[9\]
*783 hk_stb_o
*784 hkspi_sram_addr\[0\]
*785 hkspi_sram_addr\[1\]
*786 hkspi_sram_addr\[2\]
*787 hkspi_sram_addr\[3\]
*788 hkspi_sram_addr\[4\]
*789 hkspi_sram_addr\[5\]
*790 hkspi_sram_addr\[6\]
*791 hkspi_sram_addr\[7\]
*792 hkspi_sram_clk
*793 hkspi_sram_csb
*794 hkspi_sram_data\[0\]
*795 hkspi_sram_data\[10\]
*796 hkspi_sram_data\[11\]
*797 hkspi_sram_data\[12\]
*798 hkspi_sram_data\[13\]
*799 hkspi_sram_data\[14\]
*800 hkspi_sram_data\[15\]
*801 hkspi_sram_data\[16\]
*802 hkspi_sram_data\[17\]
*803 hkspi_sram_data\[18\]
*804 hkspi_sram_data\[19\]
*805 hkspi_sram_data\[1\]
*806 hkspi_sram_data\[20\]
*807 hkspi_sram_data\[21\]
*808 hkspi_sram_data\[22\]
*809 hkspi_sram_data\[23\]
*810 hkspi_sram_data\[24\]
*811 hkspi_sram_data\[25\]
*812 hkspi_sram_data\[26\]
*813 hkspi_sram_data\[27\]
*814 hkspi_sram_data\[28\]
*815 hkspi_sram_data\[29\]
*816 hkspi_sram_data\[2\]
*817 hkspi_sram_data\[30\]
*818 hkspi_sram_data\[31\]
*819 hkspi_sram_data\[3\]
*820 hkspi_sram_data\[4\]
*821 hkspi_sram_data\[5\]
*822 hkspi_sram_data\[6\]
*823 hkspi_sram_data\[7\]
*824 hkspi_sram_data\[8\]
*825 hkspi_sram_data\[9\]
*826 irq_spi\[0\]
*827 irq_spi\[1\]
*828 irq_spi\[2\]
*829 la_data_in_mprj\[0\]
*830 la_data_in_mprj\[100\]
*831 la_data_in_mprj\[101\]
*832 la_data_in_mprj\[102\]
*833 la_data_in_mprj\[103\]
*834 la_data_in_mprj\[104\]
*835 la_data_in_mprj\[105\]
*836 la_data_in_mprj\[106\]
*837 la_data_in_mprj\[107\]
*838 la_data_in_mprj\[108\]
*839 la_data_in_mprj\[109\]
*840 la_data_in_mprj\[10\]
*841 la_data_in_mprj\[110\]
*842 la_data_in_mprj\[111\]
*843 la_data_in_mprj\[112\]
*844 la_data_in_mprj\[113\]
*845 la_data_in_mprj\[114\]
*846 la_data_in_mprj\[115\]
*847 la_data_in_mprj\[116\]
*848 la_data_in_mprj\[117\]
*849 la_data_in_mprj\[118\]
*850 la_data_in_mprj\[119\]
*851 la_data_in_mprj\[11\]
*852 la_data_in_mprj\[120\]
*853 la_data_in_mprj\[121\]
*854 la_data_in_mprj\[122\]
*855 la_data_in_mprj\[123\]
*856 la_data_in_mprj\[124\]
*857 la_data_in_mprj\[125\]
*858 la_data_in_mprj\[126\]
*859 la_data_in_mprj\[127\]
*860 la_data_in_mprj\[12\]
*861 la_data_in_mprj\[13\]
*862 la_data_in_mprj\[14\]
*863 la_data_in_mprj\[15\]
*864 la_data_in_mprj\[16\]
*865 la_data_in_mprj\[17\]
*866 la_data_in_mprj\[18\]
*867 la_data_in_mprj\[19\]
*868 la_data_in_mprj\[1\]
*869 la_data_in_mprj\[20\]
*870 la_data_in_mprj\[21\]
*871 la_data_in_mprj\[22\]
*872 la_data_in_mprj\[23\]
*873 la_data_in_mprj\[24\]
*874 la_data_in_mprj\[25\]
*875 la_data_in_mprj\[26\]
*876 la_data_in_mprj\[27\]
*877 la_data_in_mprj\[28\]
*878 la_data_in_mprj\[29\]
*879 la_data_in_mprj\[2\]
*880 la_data_in_mprj\[30\]
*881 la_data_in_mprj\[31\]
*882 la_data_in_mprj\[32\]
*883 la_data_in_mprj\[33\]
*884 la_data_in_mprj\[34\]
*885 la_data_in_mprj\[35\]
*886 la_data_in_mprj\[36\]
*887 la_data_in_mprj\[37\]
*888 la_data_in_mprj\[38\]
*889 la_data_in_mprj\[39\]
*890 la_data_in_mprj\[3\]
*891 la_data_in_mprj\[40\]
*892 la_data_in_mprj\[41\]
*893 la_data_in_mprj\[42\]
*894 la_data_in_mprj\[43\]
*895 la_data_in_mprj\[44\]
*896 la_data_in_mprj\[45\]
*897 la_data_in_mprj\[46\]
*898 la_data_in_mprj\[47\]
*899 la_data_in_mprj\[48\]
*900 la_data_in_mprj\[49\]
*901 la_data_in_mprj\[4\]
*902 la_data_in_mprj\[50\]
*903 la_data_in_mprj\[51\]
*904 la_data_in_mprj\[52\]
*905 la_data_in_mprj\[53\]
*906 la_data_in_mprj\[54\]
*907 la_data_in_mprj\[55\]
*908 la_data_in_mprj\[56\]
*909 la_data_in_mprj\[57\]
*910 la_data_in_mprj\[58\]
*911 la_data_in_mprj\[59\]
*912 la_data_in_mprj\[5\]
*913 la_data_in_mprj\[60\]
*914 la_data_in_mprj\[61\]
*915 la_data_in_mprj\[62\]
*916 la_data_in_mprj\[63\]
*917 la_data_in_mprj\[64\]
*918 la_data_in_mprj\[65\]
*919 la_data_in_mprj\[66\]
*920 la_data_in_mprj\[67\]
*921 la_data_in_mprj\[68\]
*922 la_data_in_mprj\[69\]
*923 la_data_in_mprj\[6\]
*924 la_data_in_mprj\[70\]
*925 la_data_in_mprj\[71\]
*926 la_data_in_mprj\[72\]
*927 la_data_in_mprj\[73\]
*928 la_data_in_mprj\[74\]
*929 la_data_in_mprj\[75\]
*930 la_data_in_mprj\[76\]
*931 la_data_in_mprj\[77\]
*932 la_data_in_mprj\[78\]
*933 la_data_in_mprj\[79\]
*934 la_data_in_mprj\[7\]
*935 la_data_in_mprj\[80\]
*936 la_data_in_mprj\[81\]
*937 la_data_in_mprj\[82\]
*938 la_data_in_mprj\[83\]
*939 la_data_in_mprj\[84\]
*940 la_data_in_mprj\[85\]
*941 la_data_in_mprj\[86\]
*942 la_data_in_mprj\[87\]
*943 la_data_in_mprj\[88\]
*944 la_data_in_mprj\[89\]
*945 la_data_in_mprj\[8\]
*946 la_data_in_mprj\[90\]
*947 la_data_in_mprj\[91\]
*948 la_data_in_mprj\[92\]
*949 la_data_in_mprj\[93\]
*950 la_data_in_mprj\[94\]
*951 la_data_in_mprj\[95\]
*952 la_data_in_mprj\[96\]
*953 la_data_in_mprj\[97\]
*954 la_data_in_mprj\[98\]
*955 la_data_in_mprj\[99\]
*956 la_data_in_mprj\[9\]
*957 la_data_in_user\[0\]
*958 la_data_in_user\[100\]
*959 la_data_in_user\[101\]
*960 la_data_in_user\[102\]
*961 la_data_in_user\[103\]
*962 la_data_in_user\[104\]
*963 la_data_in_user\[105\]
*964 la_data_in_user\[106\]
*965 la_data_in_user\[107\]
*966 la_data_in_user\[108\]
*967 la_data_in_user\[109\]
*968 la_data_in_user\[10\]
*969 la_data_in_user\[110\]
*970 la_data_in_user\[111\]
*971 la_data_in_user\[112\]
*972 la_data_in_user\[113\]
*973 la_data_in_user\[114\]
*974 la_data_in_user\[115\]
*975 la_data_in_user\[116\]
*976 la_data_in_user\[117\]
*977 la_data_in_user\[118\]
*978 la_data_in_user\[119\]
*979 la_data_in_user\[11\]
*980 la_data_in_user\[120\]
*981 la_data_in_user\[121\]
*982 la_data_in_user\[122\]
*983 la_data_in_user\[123\]
*984 la_data_in_user\[124\]
*985 la_data_in_user\[125\]
*986 la_data_in_user\[126\]
*987 la_data_in_user\[127\]
*988 la_data_in_user\[12\]
*989 la_data_in_user\[13\]
*990 la_data_in_user\[14\]
*991 la_data_in_user\[15\]
*992 la_data_in_user\[16\]
*993 la_data_in_user\[17\]
*994 la_data_in_user\[18\]
*995 la_data_in_user\[19\]
*996 la_data_in_user\[1\]
*997 la_data_in_user\[20\]
*998 la_data_in_user\[21\]
*999 la_data_in_user\[22\]
*1000 la_data_in_user\[23\]
*1001 la_data_in_user\[24\]
*1002 la_data_in_user\[25\]
*1003 la_data_in_user\[26\]
*1004 la_data_in_user\[27\]
*1005 la_data_in_user\[28\]
*1006 la_data_in_user\[29\]
*1007 la_data_in_user\[2\]
*1008 la_data_in_user\[30\]
*1009 la_data_in_user\[31\]
*1010 la_data_in_user\[32\]
*1011 la_data_in_user\[33\]
*1012 la_data_in_user\[34\]
*1013 la_data_in_user\[35\]
*1014 la_data_in_user\[36\]
*1015 la_data_in_user\[37\]
*1016 la_data_in_user\[38\]
*1017 la_data_in_user\[39\]
*1018 la_data_in_user\[3\]
*1019 la_data_in_user\[40\]
*1020 la_data_in_user\[41\]
*1021 la_data_in_user\[42\]
*1022 la_data_in_user\[43\]
*1023 la_data_in_user\[44\]
*1024 la_data_in_user\[45\]
*1025 la_data_in_user\[46\]
*1026 la_data_in_user\[47\]
*1027 la_data_in_user\[48\]
*1028 la_data_in_user\[49\]
*1029 la_data_in_user\[4\]
*1030 la_data_in_user\[50\]
*1031 la_data_in_user\[51\]
*1032 la_data_in_user\[52\]
*1033 la_data_in_user\[53\]
*1034 la_data_in_user\[54\]
*1035 la_data_in_user\[55\]
*1036 la_data_in_user\[56\]
*1037 la_data_in_user\[57\]
*1038 la_data_in_user\[58\]
*1039 la_data_in_user\[59\]
*1040 la_data_in_user\[5\]
*1041 la_data_in_user\[60\]
*1042 la_data_in_user\[61\]
*1043 la_data_in_user\[62\]
*1044 la_data_in_user\[63\]
*1045 la_data_in_user\[64\]
*1046 la_data_in_user\[65\]
*1047 la_data_in_user\[66\]
*1048 la_data_in_user\[67\]
*1049 la_data_in_user\[68\]
*1050 la_data_in_user\[69\]
*1051 la_data_in_user\[6\]
*1052 la_data_in_user\[70\]
*1053 la_data_in_user\[71\]
*1054 la_data_in_user\[72\]
*1055 la_data_in_user\[73\]
*1056 la_data_in_user\[74\]
*1057 la_data_in_user\[75\]
*1058 la_data_in_user\[76\]
*1059 la_data_in_user\[77\]
*1060 la_data_in_user\[78\]
*1061 la_data_in_user\[79\]
*1062 la_data_in_user\[7\]
*1063 la_data_in_user\[80\]
*1064 la_data_in_user\[81\]
*1065 la_data_in_user\[82\]
*1066 la_data_in_user\[83\]
*1067 la_data_in_user\[84\]
*1068 la_data_in_user\[85\]
*1069 la_data_in_user\[86\]
*1070 la_data_in_user\[87\]
*1071 la_data_in_user\[88\]
*1072 la_data_in_user\[89\]
*1073 la_data_in_user\[8\]
*1074 la_data_in_user\[90\]
*1075 la_data_in_user\[91\]
*1076 la_data_in_user\[92\]
*1077 la_data_in_user\[93\]
*1078 la_data_in_user\[94\]
*1079 la_data_in_user\[95\]
*1080 la_data_in_user\[96\]
*1081 la_data_in_user\[97\]
*1082 la_data_in_user\[98\]
*1083 la_data_in_user\[99\]
*1084 la_data_in_user\[9\]
*1085 la_data_out_mprj\[0\]
*1086 la_data_out_mprj\[100\]
*1087 la_data_out_mprj\[101\]
*1088 la_data_out_mprj\[102\]
*1089 la_data_out_mprj\[103\]
*1090 la_data_out_mprj\[104\]
*1091 la_data_out_mprj\[105\]
*1092 la_data_out_mprj\[106\]
*1093 la_data_out_mprj\[107\]
*1094 la_data_out_mprj\[108\]
*1095 la_data_out_mprj\[109\]
*1096 la_data_out_mprj\[10\]
*1097 la_data_out_mprj\[110\]
*1098 la_data_out_mprj\[111\]
*1099 la_data_out_mprj\[112\]
*1100 la_data_out_mprj\[113\]
*1101 la_data_out_mprj\[114\]
*1102 la_data_out_mprj\[115\]
*1103 la_data_out_mprj\[116\]
*1104 la_data_out_mprj\[117\]
*1105 la_data_out_mprj\[118\]
*1106 la_data_out_mprj\[119\]
*1107 la_data_out_mprj\[11\]
*1108 la_data_out_mprj\[120\]
*1109 la_data_out_mprj\[121\]
*1110 la_data_out_mprj\[122\]
*1111 la_data_out_mprj\[123\]
*1112 la_data_out_mprj\[124\]
*1113 la_data_out_mprj\[125\]
*1114 la_data_out_mprj\[126\]
*1115 la_data_out_mprj\[127\]
*1116 la_data_out_mprj\[12\]
*1117 la_data_out_mprj\[13\]
*1118 la_data_out_mprj\[14\]
*1119 la_data_out_mprj\[15\]
*1120 la_data_out_mprj\[16\]
*1121 la_data_out_mprj\[17\]
*1122 la_data_out_mprj\[18\]
*1123 la_data_out_mprj\[19\]
*1124 la_data_out_mprj\[1\]
*1125 la_data_out_mprj\[20\]
*1126 la_data_out_mprj\[21\]
*1127 la_data_out_mprj\[22\]
*1128 la_data_out_mprj\[23\]
*1129 la_data_out_mprj\[24\]
*1130 la_data_out_mprj\[25\]
*1131 la_data_out_mprj\[26\]
*1132 la_data_out_mprj\[27\]
*1133 la_data_out_mprj\[28\]
*1134 la_data_out_mprj\[29\]
*1135 la_data_out_mprj\[2\]
*1136 la_data_out_mprj\[30\]
*1137 la_data_out_mprj\[31\]
*1138 la_data_out_mprj\[32\]
*1139 la_data_out_mprj\[33\]
*1140 la_data_out_mprj\[34\]
*1141 la_data_out_mprj\[35\]
*1142 la_data_out_mprj\[36\]
*1143 la_data_out_mprj\[37\]
*1144 la_data_out_mprj\[38\]
*1145 la_data_out_mprj\[39\]
*1146 la_data_out_mprj\[3\]
*1147 la_data_out_mprj\[40\]
*1148 la_data_out_mprj\[41\]
*1149 la_data_out_mprj\[42\]
*1150 la_data_out_mprj\[43\]
*1151 la_data_out_mprj\[44\]
*1152 la_data_out_mprj\[45\]
*1153 la_data_out_mprj\[46\]
*1154 la_data_out_mprj\[47\]
*1155 la_data_out_mprj\[48\]
*1156 la_data_out_mprj\[49\]
*1157 la_data_out_mprj\[4\]
*1158 la_data_out_mprj\[50\]
*1159 la_data_out_mprj\[51\]
*1160 la_data_out_mprj\[52\]
*1161 la_data_out_mprj\[53\]
*1162 la_data_out_mprj\[54\]
*1163 la_data_out_mprj\[55\]
*1164 la_data_out_mprj\[56\]
*1165 la_data_out_mprj\[57\]
*1166 la_data_out_mprj\[58\]
*1167 la_data_out_mprj\[59\]
*1168 la_data_out_mprj\[5\]
*1169 la_data_out_mprj\[60\]
*1170 la_data_out_mprj\[61\]
*1171 la_data_out_mprj\[62\]
*1172 la_data_out_mprj\[63\]
*1173 la_data_out_mprj\[64\]
*1174 la_data_out_mprj\[65\]
*1175 la_data_out_mprj\[66\]
*1176 la_data_out_mprj\[67\]